Metadata-Version: 2.1
Name: imod
Version: 0.10.1
Summary: Make massive MODFLOW models
Home-page: https://gitlab.com/deltares/imod/imod-python
Author: Martijn Visser
Author-email: martijn.visser@deltares.nl
License: MIT
Keywords: imod modflow groundwater modeling
Platform: UNKNOWN
Classifier: Development Status :: 4 - Beta
Classifier: Intended Audience :: Developers
Classifier: Intended Audience :: Science/Research
Classifier: Topic :: Scientific/Engineering :: Hydrology
Classifier: License :: OSI Approved :: MIT License
Classifier: Programming Language :: Python :: 3
Classifier: Programming Language :: Python :: 3.6
Classifier: Programming Language :: Python :: 3.7
Classifier: Programming Language :: Python :: Implementation :: CPython
Requires-Python: >=3.6
Requires-Dist: affine
Requires-Dist: dask
Requires-Dist: cftime (>=1)
Requires-Dist: cytoolz
Requires-Dist: Jinja2
Requires-Dist: joblib
Requires-Dist: matplotlib
Requires-Dist: numba
Requires-Dist: numpy
Requires-Dist: pandas
Requires-Dist: tqdm
Requires-Dist: scipy
Requires-Dist: toolz
Requires-Dist: xarray (>=0.11)
Provides-Extra: dev
Requires-Dist: black ; extra == 'dev'
Requires-Dist: flopy ; extra == 'dev'
Requires-Dist: nbstripout ; extra == 'dev'
Requires-Dist: pytest ; extra == 'dev'
Requires-Dist: pytest-cov ; extra == 'dev'
Requires-Dist: pytest-benchmark ; extra == 'dev'
Requires-Dist: sphinx ; extra == 'dev'
Requires-Dist: sphinx-rtd-theme ; extra == 'dev'
Provides-Extra: optional
Requires-Dist: geopandas ; extra == 'optional'
Requires-Dist: pyvista ; extra == 'optional'
Requires-Dist: rasterio (>=1) ; extra == 'optional'
Requires-Dist: zarr ; extra == 'optional'
Requires-Dist: bottleneck ; extra == 'optional'
Requires-Dist: contextily (>=1) ; extra == 'optional'

.. image:: https://img.shields.io/badge/lifecycle-maturing-blue
   :target: https://www.tidyverse.org/lifecycle/
.. image:: https://gitlab.com/deltares/imod/imod-python/badges/master/pipeline.svg
   :target: https://gitlab.com/deltares/imod/imod-python/commits/master
.. image:: https://img.shields.io/pypi/l/imod
   :target: https://choosealicense.com/licenses/mit/
.. image:: https://gitlab.com/deltares/imod/imod-python/badges/master/coverage.svg
   :target: https://gitlab.com/deltares/imod/imod-python/commits/master
.. image:: https://img.shields.io/conda/vn/conda-forge/imod.svg
   :target: https://github.com/conda-forge/imod-feedstock
.. image:: https://mybinder.org/badge_logo.svg
   :target: https://mybinder.org/v2/gh/Deltares/iMOD-DSD-International-2019/master

.. note::
   This package is currently maturing on the way to a stable release. It is being actively used and
   developed at `Deltares <https://www.deltares.nl/en/>`__. To make it easier for others to use this
   package, the documentation still needs significant work. The API reference is fairly complete, but
   high level overviews and more examples are still lacking. Extending Modflow 6 support is also planned.

The imod Python package is designed to help you in your MODFLOW groundwater modeling efforts.
It makes it easy to go from your raw data to a fully defined MODFLOW model, with the aim to make this process reproducable.
Whether you want to build a simple 2D conceptual model, or a complex 3D regional model with millions of cells,
imod-python scales automatically by making use of `dask <https://dask.org/>`__.

By building on top of popular Python packages like `xarray <http://xarray.pydata.org/>`__, `pandas <http://pandas.pydata.org/>`__,
`rasterio <https://rasterio.readthedocs.io/en/latest/>`__ and `geopandas <http://geopandas.org/>`__, a lot of functionality comes
for free.

Currently we support the creation of the following MODFLOW-based models:

* `USGS MODFLOW 6 <https://www.usgs.gov/software/modflow-6-usgs-modular-hydrologic-model>`__, structured grids only, and no advanced stress packages yet (LAK, MAW, SFR, UZF)
* `iMODFLOW <https://oss.deltares.nl/web/imod>`__
* `iMOD-WQ <https://oss.deltares.nl/web/imod>`__, which integrates SEAWAT (density-dependent groundwater flow) and MT3DMS (multi-species reactive transport calculations)

Documentation: https://imod.xyz/

Source code: https://gitlab.com/deltares/imod/imod-python

Interactive notebook examples:

.. image:: https://mybinder.org/badge_logo.svg
   :target: https://mybinder.org/v2/gh/Deltares/iMOD-DSD-International-2019/master

Getting started
===============

.. code:: python

   import imod

   # read and write IPF files to pandas DataFrame
   df = imod.ipf.read('wells.ipf')
   imod.ipf.save('wells-out.ipf', df)

   # get all calculated heads in a xarray DataArray
   # with dimensions time, layer, y, x
   da = imod.idf.open('path/to/results/head_*.idf')

   # create a groundwater model
   # abridged example, see examples for the full code
   gwf_model = imod.mf6.GroundwaterFlowModel()
   gwf_model["dis"] = imod.mf6.StructuredDiscretization(
       top=200.0, bottom=bottom, idomain=idomain
   )
   gwf_model["chd"] = imod.mf6.ConstantHead(
       head, print_input=True, print_flows=True, save_flows=True
   )
   simulation = imod.mf6.Modflow6Simulation("ex01-twri")
   simulation["GWF_1"] = gwf_model
   simulation.time_discretization(times=["2000-01-01", "2000-01-02"])
   simulation.write(modeldir)

Authors
=======
This Python package was written primarily by Martijn Visser and Huite Bootsma at Deltares.


